  
       XFOIL         Version 6.99
  
 Calculated polar for:                                                 
  
 1 1 Reynolds number fixed          Mach number fixed         
  
 xtrf =   1.000 (top)        1.000 (bottom)  
 Mach =   0.000     Re =     0.029 e 6     Ncrit =   9.000
  
   alpha    CL        CD       CDp       CM     Top_Xtr  Bot_Xtr
  ------ -------- --------- --------- -------- -------- --------
  13.000   0.4262   0.15940   0.14597  -0.0203   0.6545   1.0000
  13.100   0.4334   0.16076   0.14736  -0.0207   0.6489   1.0000
  13.200   0.4493   0.16420   0.15084  -0.0222   0.6444   1.0000
  13.300   0.4475   0.16443   0.15105  -0.0218   0.6422   1.0000
  13.400   0.4426   0.16366   0.15029  -0.0210   0.6376   1.0000
  13.500   0.4463   0.16438   0.15103  -0.0211   0.6320   1.0000
   0.000  -0.6030   0.05294   0.04124   0.0586   1.0000   0.5855
