  
       XFOIL         Version 6.97
  
 Calculated polar for: Rotor_tip                                       
  
 1 1 Reynolds number fixed          Mach number fixed         
  
 xtrf =   1.000 (top)        1.000 (bottom)  
 Mach =   0.000     Re =     0.045 e 6     Ncrit =   9.000
  
   alpha    CL        CD       CDp       CM     Top_Xtr  Bot_Xtr
  ------ -------- --------- --------- -------- -------- --------
   9.057   1.0610   0.04041   0.03053  -0.0340   0.4346   1.0000
