  
       XFOIL         Version 6.99
  
 Calculated polar for: Rotor_mean                                      
  
 1 1 Reynolds number fixed          Mach number fixed         
  
 xtrf =   1.000 (top)        1.000 (bottom)  
 Mach =   0.000     Re =     0.021 e 6     Ncrit =   9.000
  
   alpha    CL        CD       CDp       CM     Top_Xtr  Bot_Xtr
  ------ -------- --------- --------- -------- -------- --------
   8.436   0.2248   0.08857   0.07222   0.0100   1.0000   1.0000
