  
       XFOIL         Version 6.99
  
 Calculated polar for: OSV_mean                                        
  
 1 1 Reynolds number fixed          Mach number fixed         
  
 xtrf =   1.000 (top)        1.000 (bottom)  
 Mach =   0.000     Re =     0.042 e 6     Ncrit =   9.000
  
   alpha    CL        CD       CDp       CM     Top_Xtr  Bot_Xtr
  ------ -------- --------- --------- -------- -------- --------
  11.769   0.4123   0.14382   0.13282  -0.0174   0.5483   1.0000
