  
       XFOIL         Version 6.99
  
 Calculated polar for: Rotor_tip                                       
  
 1 1 Reynolds number fixed          Mach number fixed         
  
 xtrf =   1.000 (top)        1.000 (bottom)  
 Mach =   0.000     Re =     0.045 e 6     Ncrit =   9.000
  
   alpha    CL        CD       CDp       CM     Top_Xtr  Bot_Xtr
  ------ -------- --------- --------- -------- -------- --------
   9.057   1.0808   0.03982   0.02984  -0.0367   0.4277   1.0000
