  
       XFOIL         Version 6.99
  
 Calculated polar for: Rotor_tip                                       
  
 1 1 Reynolds number fixed          Mach number fixed         
  
 xtrf =   1.000 (top)        1.000 (bottom)  
 Mach =   0.000     Re =     0.023 e 6     Ncrit =   9.000
  
   alpha    CL        CD       CDp       CM     Top_Xtr  Bot_Xtr
  ------ -------- --------- --------- -------- -------- --------
   9.035   0.2982   0.10029   0.08486  -0.0052   0.9526   1.0000
