  
       XFOIL         Version 6.97
  
 Calculated polar for: OSV_tip                                         
  
 1 1 Reynolds number fixed          Mach number fixed         
  
 xtrf =   1.000 (top)        1.000 (bottom)  
 Mach =   0.000     Re =     0.081 e 6     Ncrit =   9.000
  
   alpha    CL        CD       CDp       CM     Top_Xtr  Bot_Xtr
  ------ -------- --------- --------- -------- -------- --------
  14.011   1.2861   0.05306   0.04375  -0.0002   0.2614   1.0000
