  
       XFOIL         Version 6.99
  
 Calculated polar for: Rotor_tip                                       
  
 1 1 Reynolds number fixed          Mach number fixed         
  
 xtrf =   1.000 (top)        1.000 (bottom)  
 Mach =   0.000     Re =     0.030 e 6     Ncrit =   9.000
  
   alpha    CL        CD       CDp       CM     Top_Xtr  Bot_Xtr
  ------ -------- --------- --------- -------- -------- --------
   9.042   0.5240   0.09678   0.08400  -0.0229   0.6185   1.0000
