  
       XFOIL         Version 6.99
  
 Calculated polar for: OSV_tip                                         
  
 1 1 Reynolds number fixed          Mach number fixed         
  
 xtrf =   1.000 (top)        1.000 (bottom)  
 Mach =   0.000     Re =     0.061 e 6     Ncrit =   9.000
  
   alpha    CL        CD       CDp       CM     Top_Xtr  Bot_Xtr
  ------ -------- --------- --------- -------- -------- --------
  13.737   0.6036   0.14525   0.13616  -0.0147   0.3241   1.0000
