  
       XFOIL         Version 6.99
  
 Calculated polar for: OSV_tip                                         
  
 1 1 Reynolds number fixed          Mach number fixed         
  
 xtrf =   1.000 (top)        1.000 (bottom)  
 Mach =   0.000     Re =     0.037 e 6     Ncrit =   9.000
  
   alpha    CL        CD       CDp       CM     Top_Xtr  Bot_Xtr
  ------ -------- --------- --------- -------- -------- --------
  13.407   0.4685   0.16210   0.15043  -0.0271   0.5330   1.0000
