  
       XFOIL         Version 6.99
  
 Calculated polar for: OSV_mean                                        
  
 1 1 Reynolds number fixed          Mach number fixed         
  
 xtrf =   1.000 (top)        1.000 (bottom)  
 Mach =   0.000     Re =     0.036 e 6     Ncrit =   9.000
  
   alpha    CL        CD       CDp       CM     Top_Xtr  Bot_Xtr
  ------ -------- --------- --------- -------- -------- --------
  11.691   0.3817   0.14342   0.13155  -0.0175   0.5931   1.0000
