  
       XFOIL         Version 6.99
  
 Calculated polar for: OSV_root                                        
  
 1 1 Reynolds number fixed          Mach number fixed         
  
 xtrf =   1.000 (top)        1.000 (bottom)  
 Mach =   0.000     Re =     0.024 e 6     Ncrit =   9.000
  
   alpha    CL        CD       CDp       CM     Top_Xtr  Bot_Xtr
  ------ -------- --------- --------- -------- -------- --------
   9.314   0.1984   0.12128   0.10664  -0.0044   0.8386   1.0000
