  
       XFOIL         Version 6.97
  
 Calculated polar for: OSV_root                                        
  
 1 1 Reynolds number fixed          Mach number fixed         
  
 xtrf =   1.000 (top)        1.000 (bottom)  
 Mach =   0.000     Re =     0.020 e 6     Ncrit =   9.000
  
   alpha    CL        CD       CDp       CM     Top_Xtr  Bot_Xtr
  ------ -------- --------- --------- -------- -------- --------
   9.253   0.1448   0.11823   0.10191   0.0043   0.9268   1.0000
