  
       XFOIL         Version 6.99
  
 Calculated polar for: Rotor_root                                      
  
 1 1 Reynolds number fixed          Mach number fixed         
  
 xtrf =   1.000 (top)        1.000 (bottom)  
 Mach =   0.000     Re =     0.020 e 6     Ncrit =   9.000
  
   alpha    CL        CD       CDp       CM     Top_Xtr  Bot_Xtr
  ------ -------- --------- --------- -------- -------- --------
   7.359   0.1808   0.07836   0.06110   0.0162   1.0000   1.0000
