  
       XFOIL         Version 6.99
  
 Calculated polar for: Rotor_mean                                      
  
 1 1 Reynolds number fixed          Mach number fixed         
  
 xtrf =   1.000 (top)        1.000 (bottom)  
 Mach =   0.000     Re =     0.020 e 6     Ncrit =   9.000
  
   alpha    CL        CD       CDp       CM     Top_Xtr  Bot_Xtr
  ------ -------- --------- --------- -------- -------- --------
   8.434   0.2261   0.08898   0.07185   0.0104   1.0000   1.0000
